440
Lattice="19.73 0.0 0.0 -9.864999999999997 17.086681216666975 0.0 0.0 0.0 14.8612" Properties=species:S:1:pos:R:3 9.8650=T 7.4306=T 90.0000=T 120.0000=T pbc="T T T"
P        3.23920000       5.10980000       1.85770000
O        1.79000000       5.67190000       1.85770000
O        4.03870000       5.57710000       0.62050000
O        3.18890000       3.54290000       1.85770000
O        4.03870000       5.57710000       3.09480000
Pb       6.15380000       6.43750000       1.85770000
Pb       0.00050000       5.69580000       0.02620000
O        4.93250000       8.54330000       2.71810000
O        4.93250000       8.54330000       0.99720000
P       -2.12690000       3.18320000       1.85770000
O       -0.91550000       4.15720000       1.85770000
O       -2.12200000       2.25720000       3.09480000
O       -3.45870000       4.01020000       1.85770000
O       -2.12200000       2.25720000       0.62050000
Pb      -2.43440000      -0.00480000       1.85770000
Pb       0.00000000       5.69500000       3.68910000
P        3.82020000       0.25030000       1.85770000
O        4.05800000      -1.28580000       1.85770000
O        3.01570000       0.70910000       3.09480000
O        5.20230000       0.99020000       1.85770000
O        3.01570000       0.70910000       0.62050000
Pb       1.21300000       2.11060000       1.85770000
O       -0.87450000       7.25760000       1.85770000
O        7.05450000       6.28620000      -0.62050000
O       -3.01570000      -0.70910000      -0.62050000
O        0.89380000       2.96620000      -0.62050000
O        7.05450000       6.28620000       4.33580000
O       -3.01570000      -0.70910000       4.33580000
O        0.89380000       2.96620000       4.33580000
O        6.40630000       4.01020000       1.85770000
O       -4.66270000       0.99020000       1.85770000
O       -1.47380000       4.53310000      -1.85770000
O       -1.47380000       4.53310000       5.57300000
O       -0.26980000       7.55320000      -1.85770000
O       -0.26980000       7.55320000       5.57300000
O        1.74360000       5.00040000      -1.85770000
O        1.74360000       5.00040000       5.57300000
Pb       7.43060000      -0.00480000       1.85770000
Pb       2.49810000       8.53860000       1.85770000
Pb       6.14550000      10.65400000       1.85770000
Pb      -3.71120000       6.43750000       1.85770000
Pb       2.43440000       0.00480000      -1.85770000
Pb       2.43440000       0.00480000       5.57300000
Pb       3.71950000       6.43270000      -1.85770000
Pb       3.71950000       6.43270000       5.57300000
Pb      -1.22130000       2.10580000      -1.85770000
Pb      -1.22130000       2.10580000       5.57300000
Pb       4.93250000      -2.84830000       3.68910000
Pb      -4.93250000       2.84830000      -0.02620000
Pb       4.93250000       2.84830000      -0.02620000
Pb      -4.93250000       2.84830000       3.74150000
Pb       4.93250000       2.84830000       3.74150000
Pb       4.93250000      -2.84830000       0.02620000
O        0.00000000       0.00000000       0.99720000
O        0.00000000       0.00000000       2.71810000
P        3.23920000       5.10980000       9.28830000
O        1.79000000       5.67190000       9.28830000
O        4.03870000       5.57710000       8.05110000
O        3.18890000       3.54290000       9.28830000
O        4.03870000       5.57710000      10.52540000
Pb       6.15380000       6.43750000       9.28830000
Pb       0.00050000       5.69580000       7.45680000
O        4.93250000       8.54330000      10.14870000
O        4.93250000       8.54330000       8.42780000
P       -2.12690000       3.18320000       9.28830000
O       -0.91550000       4.15720000       9.28830000
O       -2.12200000       2.25720000      10.52540000
O       -3.45870000       4.01020000       9.28830000
O       -2.12200000       2.25720000       8.05110000
Pb      -2.43440000      -0.00480000       9.28830000
Pb       0.00000000       5.69500000      11.11970000
P        3.82020000       0.25030000       9.28830000
O        4.05800000      -1.28580000       9.28830000
O        3.01570000       0.70910000      10.52540000
O        5.20230000       0.99020000       9.28830000
O        3.01570000       0.70910000       8.05110000
Pb       1.21300000       2.11060000       9.28830000
O       -0.87450000       7.25760000       9.28830000
O        7.05450000       6.28620000       6.81010000
O       -3.01570000      -0.70910000       6.81010000
O        0.89380000       2.96620000       6.81010000
O        7.05450000       6.28620000      11.76640000
O       -3.01570000      -0.70910000      11.76640000
O        0.89380000       2.96620000      11.76640000
O        6.40630000       4.01020000       9.28830000
O       -4.66270000       0.99020000       9.28830000
O       -1.47380000       4.53310000       5.57290000
O       -1.47380000       4.53310000      13.00360000
O       -0.26980000       7.55320000       5.57290000
O       -0.26980000       7.55320000      13.00360000
O        1.74360000       5.00040000       5.57290000
O        1.74360000       5.00040000      13.00360000
Pb       7.43060000      -0.00480000       9.28830000
Pb       2.49810000       8.53860000       9.28830000
Pb       6.14550000      10.65400000       9.28830000
Pb      -3.71120000       6.43750000       9.28830000
Pb       2.43440000       0.00480000       5.57290000
Pb       2.43440000       0.00480000      13.00360000
Pb       3.71950000       6.43270000       5.57290000
Pb       3.71950000       6.43270000      13.00360000
Pb      -1.22130000       2.10580000       5.57290000
Pb      -1.22130000       2.10580000      13.00360000
Pb       4.93250000      -2.84830000      11.11970000
Pb      -4.93250000       2.84830000       7.40440000
Pb       4.93250000       2.84830000       7.40440000
Pb      -4.93250000       2.84830000      11.17210000
Pb       4.93250000       2.84830000      11.17210000
Pb       4.93250000      -2.84830000       7.45680000
O        0.00000000       0.00000000       8.42780000
O        0.00000000       0.00000000      10.14870000
P       -1.69330000      13.65314061       1.85770000
O       -3.14250000      14.21524061       1.85770000
O       -0.89380000      14.12044061       0.62050000
O       -1.74360000      12.08624061       1.85770000
O       -0.89380000      14.12044061       3.09480000
Pb       1.22130000      14.98084061       1.85770000
Pb      -4.93200000      14.23914061       0.02620000
O        0.00000000      17.08664061       2.71810000
O        0.00000000      17.08664061       0.99720000
P       -7.05940000      11.72654061       1.85770000
O       -5.84800000      12.70054061       1.85770000
O       -7.05450000      10.80054061       3.09480000
O       -8.39120000      12.55354061       1.85770000
O       -7.05450000      10.80054061       0.62050000
Pb      -7.36690000       8.53854061       1.85770000
Pb      -4.93250000      14.23834061       3.68910000
P       -1.11230000       8.79364061       1.85770000
O       -0.87450000       7.25754061       1.85770000
O       -1.91680000       9.25244061       3.09480000
O        0.26980000       9.53354061       1.85770000
O       -1.91680000       9.25244061       0.62050000
Pb      -3.71950000      10.65394061       1.85770000
O       -5.80700000      15.80094061       1.85770000
O        2.12200000      14.82954061      -0.62050000
O       -7.94820000       7.83424061      -0.62050000
O       -4.03870000      11.50954061      -0.62050000
O        2.12200000      14.82954061       4.33580000
O       -7.94820000       7.83424061       4.33580000
O       -4.03870000      11.50954061       4.33580000
O        1.47380000      12.55354061       1.85770000
O       -9.59520000       9.53354061       1.85770000
O       -6.40630000      13.07644061      -1.85770000
O       -6.40630000      13.07644061       5.57300000
O       -5.20230000      16.09654061      -1.85770000
O       -5.20230000      16.09654061       5.57300000
O       -3.18890000      13.54374061      -1.85770000
O       -3.18890000      13.54374061       5.57300000
Pb       2.49810000       8.53854061       1.85770000
Pb      -2.43440000      17.08194061       1.85770000
Pb       1.21300000      19.19734061       1.85770000
Pb      -8.64370000      14.98084061       1.85770000
Pb      -2.49810000       8.54814061      -1.85770000
Pb      -2.49810000       8.54814061       5.57300000
Pb      -1.21300000      14.97604061      -1.85770000
Pb      -1.21300000      14.97604061       5.57300000
Pb      -6.15380000      10.64914061      -1.85770000
Pb      -6.15380000      10.64914061       5.57300000
Pb       0.00000000       5.69504061       3.68910000
Pb      -9.86500000      11.39164061      -0.02620000
Pb       0.00000000      11.39164061      -0.02620000
Pb      -9.86500000      11.39164061       3.74150000
Pb       0.00000000      11.39164061       3.74150000
Pb       0.00000000       5.69504061       0.02620000
O       -4.93250000       8.54334061       0.99720000
O       -4.93250000       8.54334061       2.71810000
P       -1.69330000      13.65314061       9.28830000
O       -3.14250000      14.21524061       9.28830000
O       -0.89380000      14.12044061       8.05110000
O       -1.74360000      12.08624061       9.28830000
O       -0.89380000      14.12044061      10.52540000
Pb       1.22130000      14.98084061       9.28830000
Pb      -4.93200000      14.23914061       7.45680000
O        0.00000000      17.08664061      10.14870000
O        0.00000000      17.08664061       8.42780000
P       -7.05940000      11.72654061       9.28830000
O       -5.84800000      12.70054061       9.28830000
O       -7.05450000      10.80054061      10.52540000
O       -8.39120000      12.55354061       9.28830000
O       -7.05450000      10.80054061       8.05110000
Pb      -7.36690000       8.53854061       9.28830000
Pb      -4.93250000      14.23834061      11.11970000
P       -1.11230000       8.79364061       9.28830000
O       -0.87450000       7.25754061       9.28830000
O       -1.91680000       9.25244061      10.52540000
O        0.26980000       9.53354061       9.28830000
O       -1.91680000       9.25244061       8.05110000
Pb      -3.71950000      10.65394061       9.28830000
O       -5.80700000      15.80094061       9.28830000
O        2.12200000      14.82954061       6.81010000
O       -7.94820000       7.83424061       6.81010000
O       -4.03870000      11.50954061       6.81010000
O        2.12200000      14.82954061      11.76640000
O       -7.94820000       7.83424061      11.76640000
O       -4.03870000      11.50954061      11.76640000
O        1.47380000      12.55354061       9.28830000
O       -9.59520000       9.53354061       9.28830000
O       -6.40630000      13.07644061       5.57290000
O       -6.40630000      13.07644061      13.00360000
O       -5.20230000      16.09654061       5.57290000
O       -5.20230000      16.09654061      13.00360000
O       -3.18890000      13.54374061       5.57290000
O       -3.18890000      13.54374061      13.00360000
Pb       2.49810000       8.53854061       9.28830000
Pb      -2.43440000      17.08194061       9.28830000
Pb       1.21300000      19.19734061       9.28830000
Pb      -8.64370000      14.98084061       9.28830000
Pb      -2.49810000       8.54814061       5.57290000
Pb      -2.49810000       8.54814061      13.00360000
Pb      -1.21300000      14.97604061       5.57290000
Pb      -1.21300000      14.97604061      13.00360000
Pb      -6.15380000      10.64914061       5.57290000
Pb      -6.15380000      10.64914061      13.00360000
Pb       0.00000000       5.69504061      11.11970000
Pb      -9.86500000      11.39164061       7.40440000
Pb       0.00000000      11.39164061       7.40440000
Pb      -9.86500000      11.39164061      11.17210000
Pb       0.00000000      11.39164061      11.17210000
Pb       0.00000000       5.69504061       7.45680000
O       -4.93250000       8.54334061       8.42780000
O       -4.93250000       8.54334061      10.14870000
P       13.10420000       5.10980000       1.85770000
O       11.65500000       5.67190000       1.85770000
O       13.90370000       5.57710000       0.62050000
O       13.05390000       3.54290000       1.85770000
O       13.90370000       5.57710000       3.09480000
Pb      16.01880000       6.43750000       1.85770000
Pb       9.86550000       5.69580000       0.02620000
O       14.79750000       8.54330000       2.71810000
O       14.79750000       8.54330000       0.99720000
P        7.73810000       3.18320000       1.85770000
O        8.94950000       4.15720000       1.85770000
O        7.74300000       2.25720000       3.09480000
O        6.40630000       4.01020000       1.85770000
O        7.74300000       2.25720000       0.62050000
Pb       7.43060000      -0.00480000       1.85770000
Pb       9.86500000       5.69500000       3.68910000
P       13.68520000       0.25030000       1.85770000
O       13.92300000      -1.28580000       1.85770000
O       12.88070000       0.70910000       3.09480000
O       15.06730000       0.99020000       1.85770000
O       12.88070000       0.70910000       0.62050000
Pb      11.07800000       2.11060000       1.85770000
O        8.99050000       7.25760000       1.85770000
O       16.91950000       6.28620000      -0.62050000
O        6.84930000      -0.70910000      -0.62050000
O       10.75880000       2.96620000      -0.62050000
O       16.91950000       6.28620000       4.33580000
O        6.84930000      -0.70910000       4.33580000
O       10.75880000       2.96620000       4.33580000
O       16.27130000       4.01020000       1.85770000
O        5.20230000       0.99020000       1.85770000
O        8.39120000       4.53310000      -1.85770000
O        8.39120000       4.53310000       5.57300000
O        9.59520000       7.55320000      -1.85770000
O        9.59520000       7.55320000       5.57300000
O       11.60860000       5.00040000      -1.85770000
O       11.60860000       5.00040000       5.57300000
Pb      17.29560000      -0.00480000       1.85770000
Pb      12.36310000       8.53860000       1.85770000
Pb      16.01050000      10.65400000       1.85770000
Pb       6.15380000       6.43750000       1.85770000
Pb      12.29940000       0.00480000      -1.85770000
Pb      12.29940000       0.00480000       5.57300000
Pb      13.58450000       6.43270000      -1.85770000
Pb      13.58450000       6.43270000       5.57300000
Pb       8.64370000       2.10580000      -1.85770000
Pb       8.64370000       2.10580000       5.57300000
Pb      14.79750000      -2.84830000       3.68910000
Pb       4.93250000       2.84830000      -0.02620000
Pb      14.79750000       2.84830000      -0.02620000
Pb       4.93250000       2.84830000       3.74150000
Pb      14.79750000       2.84830000       3.74150000
Pb      14.79750000      -2.84830000       0.02620000
O        9.86500000       0.00000000       0.99720000
O        9.86500000       0.00000000       2.71810000
P       13.10420000       5.10980000       9.28830000
O       11.65500000       5.67190000       9.28830000
O       13.90370000       5.57710000       8.05110000
O       13.05390000       3.54290000       9.28830000
O       13.90370000       5.57710000      10.52540000
Pb      16.01880000       6.43750000       9.28830000
Pb       9.86550000       5.69580000       7.45680000
O       14.79750000       8.54330000      10.14870000
O       14.79750000       8.54330000       8.42780000
P        7.73810000       3.18320000       9.28830000
O        8.94950000       4.15720000       9.28830000
O        7.74300000       2.25720000      10.52540000
O        6.40630000       4.01020000       9.28830000
O        7.74300000       2.25720000       8.05110000
Pb       7.43060000      -0.00480000       9.28830000
Pb       9.86500000       5.69500000      11.11970000
P       13.68520000       0.25030000       9.28830000
O       13.92300000      -1.28580000       9.28830000
O       12.88070000       0.70910000      10.52540000
O       15.06730000       0.99020000       9.28830000
O       12.88070000       0.70910000       8.05110000
Pb      11.07800000       2.11060000       9.28830000
O        8.99050000       7.25760000       9.28830000
O       16.91950000       6.28620000       6.81010000
O        6.84930000      -0.70910000       6.81010000
O       10.75880000       2.96620000       6.81010000
O       16.91950000       6.28620000      11.76640000
O        6.84930000      -0.70910000      11.76640000
O       10.75880000       2.96620000      11.76640000
O       16.27130000       4.01020000       9.28830000
O        5.20230000       0.99020000       9.28830000
O        8.39120000       4.53310000       5.57290000
O        8.39120000       4.53310000      13.00360000
O        9.59520000       7.55320000       5.57290000
O        9.59520000       7.55320000      13.00360000
O       11.60860000       5.00040000       5.57290000
O       11.60860000       5.00040000      13.00360000
Pb      17.29560000      -0.00480000       9.28830000
Pb      12.36310000       8.53860000       9.28830000
Pb      16.01050000      10.65400000       9.28830000
Pb       6.15380000       6.43750000       9.28830000
Pb      12.29940000       0.00480000       5.57290000
Pb      12.29940000       0.00480000      13.00360000
Pb      13.58450000       6.43270000       5.57290000
Pb      13.58450000       6.43270000      13.00360000
Pb       8.64370000       2.10580000       5.57290000
Pb       8.64370000       2.10580000      13.00360000
Pb      14.79750000      -2.84830000      11.11970000
Pb       4.93250000       2.84830000       7.40440000
Pb      14.79750000       2.84830000       7.40440000
Pb       4.93250000       2.84830000      11.17210000
Pb      14.79750000       2.84830000      11.17210000
Pb      14.79750000      -2.84830000       7.45680000
O        9.86500000       0.00000000       8.42780000
O        9.86500000       0.00000000      10.14870000
P        8.17170000      13.65314061       1.85770000
O        6.72250000      14.21524061       1.85770000
O        8.97120000      14.12044061       0.62050000
O        8.12140000      12.08624061       1.85770000
O        8.97120000      14.12044061       3.09480000
Pb      11.08630000      14.98084061       1.85770000
Pb       4.93300000      14.23914061       0.02620000
O        9.86500000      17.08664061       2.71810000
O        9.86500000      17.08664061       0.99720000
P        2.80560000      11.72654061       1.85770000
O        4.01700000      12.70054061       1.85770000
O        2.81050000      10.80054061       3.09480000
O        1.47380000      12.55354061       1.85770000
O        2.81050000      10.80054061       0.62050000
Pb       2.49810000       8.53854061       1.85770000
Pb       4.93250000      14.23834061       3.68910000
P        8.75270000       8.79364061       1.85770000
O        8.99050000       7.25754061       1.85770000
O        7.94820000       9.25244061       3.09480000
O       10.13480000       9.53354061       1.85770000
O        7.94820000       9.25244061       0.62050000
Pb       6.14550000      10.65394061       1.85770000
O        4.05800000      15.80094061       1.85770000
O       11.98700000      14.82954061      -0.62050000
O        1.91680000       7.83424061      -0.62050000
O        5.82630000      11.50954061      -0.62050000
O       11.98700000      14.82954061       4.33580000
O        1.91680000       7.83424061       4.33580000
O        5.82630000      11.50954061       4.33580000
O       11.33880000      12.55354061       1.85770000
O        0.26980000       9.53354061       1.85770000
O        3.45870000      13.07644061      -1.85770000
O        3.45870000      13.07644061       5.57300000
O        4.66270000      16.09654061      -1.85770000
O        4.66270000      16.09654061       5.57300000
O        6.67610000      13.54374061      -1.85770000
O        6.67610000      13.54374061       5.57300000
Pb      12.36310000       8.53854061       1.85770000
Pb       7.43060000      17.08194061       1.85770000
Pb      11.07800000      19.19734061       1.85770000
Pb       1.22130000      14.98084061       1.85770000
Pb       7.36690000       8.54814061      -1.85770000
Pb       7.36690000       8.54814061       5.57300000
Pb       8.65200000      14.97604061      -1.85770000
Pb       8.65200000      14.97604061       5.57300000
Pb       3.71120000      10.64914061      -1.85770000
Pb       3.71120000      10.64914061       5.57300000
Pb       9.86500000       5.69504061       3.68910000
Pb       0.00000000      11.39164061      -0.02620000
Pb       9.86500000      11.39164061      -0.02620000
Pb       0.00000000      11.39164061       3.74150000
Pb       9.86500000      11.39164061       3.74150000
Pb       9.86500000       5.69504061       0.02620000
O        4.93250000       8.54334061       0.99720000
O        4.93250000       8.54334061       2.71810000
P        8.17170000      13.65314061       9.28830000
O        6.72250000      14.21524061       9.28830000
O        8.97120000      14.12044061       8.05110000
O        8.12140000      12.08624061       9.28830000
O        8.97120000      14.12044061      10.52540000
Pb      11.08630000      14.98084061       9.28830000
Pb       4.93300000      14.23914061       7.45680000
O        9.86500000      17.08664061      10.14870000
O        9.86500000      17.08664061       8.42780000
P        2.80560000      11.72654061       9.28830000
O        4.01700000      12.70054061       9.28830000
O        2.81050000      10.80054061      10.52540000
O        1.47380000      12.55354061       9.28830000
O        2.81050000      10.80054061       8.05110000
Pb       2.49810000       8.53854061       9.28830000
Pb       4.93250000      14.23834061      11.11970000
P        8.75270000       8.79364061       9.28830000
O        8.99050000       7.25754061       9.28830000
O        7.94820000       9.25244061      10.52540000
O       10.13480000       9.53354061       9.28830000
O        7.94820000       9.25244061       8.05110000
Pb       6.14550000      10.65394061       9.28830000
O        4.05800000      15.80094061       9.28830000
O       11.98700000      14.82954061       6.81010000
O        1.91680000       7.83424061       6.81010000
O        5.82630000      11.50954061       6.81010000
O       11.98700000      14.82954061      11.76640000
O        1.91680000       7.83424061      11.76640000
O        5.82630000      11.50954061      11.76640000
O       11.33880000      12.55354061       9.28830000
O        0.26980000       9.53354061       9.28830000
O        3.45870000      13.07644061       5.57290000
O        3.45870000      13.07644061      13.00360000
O        4.66270000      16.09654061       5.57290000
O        4.66270000      16.09654061      13.00360000
O        6.67610000      13.54374061       5.57290000
O        6.67610000      13.54374061      13.00360000
Pb      12.36310000       8.53854061       9.28830000
Pb       7.43060000      17.08194061       9.28830000
Pb      11.07800000      19.19734061       9.28830000
Pb       1.22130000      14.98084061       9.28830000
Pb       7.36690000       8.54814061       5.57290000
Pb       7.36690000       8.54814061      13.00360000
Pb       8.65200000      14.97604061       5.57290000
Pb       8.65200000      14.97604061      13.00360000
Pb       3.71120000      10.64914061       5.57290000
Pb       3.71120000      10.64914061      13.00360000
Pb       9.86500000       5.69504061      11.11970000
Pb       0.00000000      11.39164061       7.40440000
Pb       9.86500000      11.39164061       7.40440000
Pb       0.00000000      11.39164061      11.17210000
Pb       9.86500000      11.39164061      11.17210000
Pb       9.86500000       5.69504061       7.45680000
O        4.93250000       8.54334061       8.42780000
O        4.93250000       8.54334061      10.14870000
